<?xml version="1.0" encoding="UTF-8"?>

<!-- generated on 2026-05-29T20:07:19.987448+01:00 by Eclipse SUMO netedit 1.26.0
<neteditConfiguration xmlns:xsi="http://www.w3.org/2001/XMLSchema-instance" xsi:noNamespaceSchemaLocation="http://sumo.dlr.de/xsd/neteditConfiguration.xsd">

    <input>
        <sumo-net-file value="C:\Sumo-RL-Traffic-Control\data\modlinska_swiatowida_kolacinska_net.net.xml"/>
    </input>

    <output>
        <output-file value="C:\Sumo-RL-Traffic-Control\data\modlinska_swiatowida_kolacinska_net.net.xml"/>
    </output>

    <processing>
        <geometry.min-radius.fix.railways value="false"/>
        <geometry.avoid-overlap value="false"/>
        <geometry.max-grade.fix value="false"/>
        <offset.disable-normalization value="true"/>
        <lefthand value="0"/>
    </processing>

    <junctions>
        <no-turnarounds value="true"/>
        <junctions.corner-detail value="5"/>
        <junctions.limit-turn-speed value="5.50"/>
        <rectangular-lane-cut value="0"/>
    </junctions>

    <pedestrian>
        <walkingareas value="0"/>
    </pedestrian>

</neteditConfiguration>
-->

<net version="1.20" junctionCornerDetail="5" limitTurnSpeed="5.50" avoidOverlap="0" xmlns:xsi="http://www.w3.org/2001/XMLSchema-instance" xsi:noNamespaceSchemaLocation="http://sumo.dlr.de/xsd/net_file.xsd">

    <location netOffset="0.00,0.00" convBoundary="497950.41,5788782.22,498615.40,5796982.45" origBoundary="20.943051,52.249438,20.991616,52.331193" projParameter="+proj=utm +zone=34 +ellps=WGS84 +datum=WGS84 +units=m +no_defs"/>

    <type id="highway.primary" priority="12" numLanes="2" speed="27.78" disallow="tram rail_urban rail rail_electric rail_fast ship container cable_car subway aircraft wheelchair scooter drone" oneway="0"/>
    <type id="highway.residential" priority="3" numLanes="1" speed="13.89" disallow="tram rail_urban rail rail_electric rail_fast ship container cable_car subway aircraft wheelchair scooter drone" oneway="0"/>
    <type id="highway.tertiary" priority="10" numLanes="1" speed="22.22" disallow="tram rail_urban rail rail_electric rail_fast ship container cable_car subway aircraft wheelchair scooter drone" oneway="0"/>

    <edge id=":2394886913_0" function="internal">
        <lane id=":2394886913_0_0" index="0" disallow="tram rail_urban rail rail_electric rail_fast ship container cable_car subway aircraft wheelchair scooter drone" speed="16.67" length="8.96" shape="498160.00,5796635.35 498159.68,5796637.98 498160.64,5796639.94 498161.60,5796641.90 498161.30,5796644.54"/>
        <lane id=":2394886913_0_1" index="1" disallow="tram rail_urban rail rail_electric rail_fast ship container cable_car subway aircraft wheelchair scooter drone" speed="16.67" length="8.96" shape="498160.00,5796635.35 498159.29,5796637.63 498159.16,5796639.32 498159.05,5796641.00 498158.35,5796643.30"/>
        <lane id=":2394886913_0_2" index="2" disallow="tram rail_urban rail rail_electric rail_fast ship container cable_car subway aircraft wheelchair scooter drone" speed="16.67" length="8.96" shape="498157.06,5796634.08 498156.35,5796636.38 498156.22,5796638.06 498156.10,5796639.75 498155.40,5796642.06"/>
        <lane id=":2394886913_0_3" index="3" disallow="tram rail_urban rail rail_electric rail_fast ship container cable_car subway aircraft wheelchair scooter drone" speed="16.67" length="8.96" shape="498157.06,5796634.08 498155.88,5796636.18 498154.75,5796637.44 498153.61,5796638.70 498152.45,5796640.81"/>
        <lane id=":2394886913_0_4" index="4" disallow="tram rail_urban rail rail_electric rail_fast ship container cable_car subway aircraft wheelchair scooter drone" speed="16.67" length="8.96" shape="498157.06,5796634.08 498155.36,5796636.14 498153.27,5796636.82 498151.19,5796637.50 498149.50,5796639.57"/>
        <lane id=":2394886913_0_5" index="5" disallow="tram rail_urban rail rail_electric rail_fast ship container cable_car subway aircraft wheelchair scooter drone" speed="16.67" length="8.96" shape="498154.12,5796632.81 498152.42,5796634.88 498150.33,5796635.56 498148.24,5796636.25 498146.56,5796638.33"/>
    </edge>
    <edge id=":3827134775_0" function="internal">
        <lane id=":3827134775_0_0" index="0" disallow="tram rail_urban rail rail_electric rail_fast ship container cable_car subway aircraft wheelchair scooter drone" speed="16.67" length="8.21" shape="498033.23,5796854.81 498033.97,5796852.53 498034.11,5796850.85 498034.25,5796849.16 498034.97,5796846.87"/>
        <lane id=":3827134775_0_1" index="1" disallow="tram rail_urban rail rail_electric rail_fast ship container cable_car subway aircraft wheelchair scooter drone" speed="16.67" length="8.21" shape="498036.16,5796856.11 498036.90,5796853.82 498037.04,5796852.13 498037.18,5796850.45 498037.91,5796848.15"/>
        <lane id=":3827134775_0_2" index="2" disallow="tram rail_urban rail rail_electric rail_fast ship container cable_car subway aircraft wheelchair scooter drone" speed="16.67" length="8.21" shape="498039.08,5796857.40 498039.82,5796855.11 498039.97,5796853.42 498040.11,5796851.73 498040.84,5796849.43"/>
        <lane id=":3827134775_0_3" index="3" disallow="tram rail_urban rail rail_electric rail_fast ship container cable_car subway aircraft wheelchair scooter drone" speed="16.67" length="8.21" shape="498042.01,5796858.70 498042.75,5796856.40 498042.90,5796854.71 498043.04,5796853.02 498043.77,5796850.71"/>
        <lane id=":3827134775_0_4" index="4" disallow="tram rail_urban rail rail_electric rail_fast ship container cable_car subway aircraft wheelchair scooter drone" speed="16.67" length="8.21" shape="498042.01,5796858.70 498043.21,5796856.60 498044.36,5796855.35 498045.51,5796854.10 498046.71,5796851.99"/>
    </edge>
    <edge id=":3827134776_0" function="internal">
        <lane id=":3827134776_0_0" index="0" disallow="tram rail_urban rail rail_electric rail_fast ship container cable_car subway aircraft wheelchair scooter drone" speed="16.67" length="8.20" shape="498025.65,5796875.92 498026.37,5796873.60 498026.50,5796871.90 498026.65,5796870.20 498027.41,5796867.90"/>
        <lane id=":3827134776_0_1" index="1" disallow="tram rail_urban rail rail_electric rail_fast ship container cable_car subway aircraft wheelchair scooter drone" speed="16.67" length="8.20" shape="498025.65,5796875.92 498026.82,5796873.80 498027.97,5796872.55 498029.12,5796871.30 498030.33,5796869.20"/>
        <lane id=":3827134776_0_2" index="2" disallow="tram rail_urban rail rail_electric rail_fast ship container cable_car subway aircraft wheelchair scooter drone" speed="16.67" length="8.20" shape="498028.59,5796877.17 498029.76,5796875.08 498030.90,5796873.83 498032.05,5796872.59 498033.25,5796870.51"/>
        <lane id=":3827134776_0_3" index="3" disallow="tram rail_urban rail rail_electric rail_fast ship container cable_car subway aircraft wheelchair scooter drone" speed="16.67" length="8.20" shape="498031.54,5796878.43 498032.70,5796876.35 498033.83,5796875.11 498034.97,5796873.88 498036.17,5796871.81"/>
    </edge>
    <edge id=":419254718_0" function="internal">
        <lane id=":419254718_0_0" index="0" disallow="tram rail_urban rail rail_electric rail_fast ship container cable_car subway aircraft wheelchair scooter drone" speed="16.67" length="0.30" shape="498030.21,5796861.63 498030.32,5796861.37"/>
        <lane id=":419254718_0_1" index="1" disallow="tram rail_urban rail rail_electric rail_fast ship container cable_car subway aircraft wheelchair scooter drone" speed="16.67" length="0.30" shape="498033.13,5796862.93 498033.25,5796862.66"/>
        <lane id=":419254718_0_2" index="2" disallow="tram rail_urban rail rail_electric rail_fast ship container cable_car subway aircraft wheelchair scooter drone" speed="16.67" length="0.30" shape="498036.05,5796864.24 498036.17,5796863.96"/>
        <lane id=":419254718_0_3" index="3" disallow="tram rail_urban rail rail_electric rail_fast ship container cable_car subway aircraft wheelchair scooter drone" speed="16.67" length="0.30" shape="498038.97,5796865.54 498039.10,5796865.26"/>
    </edge>
    <edge id=":419283227_0" function="internal">
        <lane id=":419283227_0_0" index="0" disallow="tram rail_urban rail rail_electric rail_fast ship container cable_car subway aircraft wheelchair scooter drone" speed="16.67" length="8.21" shape="498185.15,5796507.15 498185.86,5796504.86 498185.99,5796503.17 498186.10,5796501.49 498186.80,5796499.19"/>
        <lane id=":419283227_0_1" index="1" disallow="tram rail_urban rail rail_electric rail_fast ship container cable_car subway aircraft wheelchair scooter drone" speed="16.67" length="8.21" shape="498188.09,5796508.41 498188.81,5796506.12 498188.93,5796504.43 498189.05,5796502.74 498189.75,5796500.43"/>
        <lane id=":419283227_0_2" index="2" disallow="tram rail_urban rail rail_electric rail_fast ship container cable_car subway aircraft wheelchair scooter drone" speed="16.67" length="8.21" shape="498191.03,5796509.68 498191.75,5796507.37 498191.87,5796505.68 498192.00,5796503.99 498192.70,5796501.68"/>
        <lane id=":419283227_0_3" index="3" disallow="tram rail_urban rail rail_electric rail_fast ship container cable_car subway aircraft wheelchair scooter drone" speed="16.67" length="8.21" shape="498191.03,5796509.68 498192.21,5796507.57 498193.35,5796506.30 498194.48,5796505.04 498195.65,5796502.92"/>
    </edge>
    <edge id=":cluster1837378574_1837414860_0" function="internal">
        <lane id=":cluster1837378574_1837414860_0_0" index="0" disallow="tram rail_urban rail rail_electric rail_fast ship container cable_car subway aircraft wheelchair scooter drone" speed="6.89" length="11.12" shape="498113.66,5796770.65 498110.36,5796769.15 498107.66,5796768.83 498105.58,5796769.71 498104.12,5796771.77"/>
    </edge>
    <edge id=":cluster1837378574_1837414860_1" function="internal">
        <lane id=":cluster1837378574_1837414860_1_0" index="0" disallow="tram rail_urban rail rail_electric rail_fast ship container cable_car subway aircraft wheelchair scooter drone" speed="13.89" length="47.17" shape="498113.66,5796770.65 498072.05,5796748.43"/>
        <lane id=":cluster1837378574_1837414860_1_1" index="1" disallow="tram rail_urban rail rail_electric rail_fast ship container cable_car subway aircraft wheelchair scooter drone" speed="13.89" length="47.17" shape="498113.66,5796770.65 498073.66,5796745.66"/>
    </edge>
    <edge id=":cluster1837378574_1837414860_3" function="internal">
        <lane id=":cluster1837378574_1837414860_3_0" index="0" disallow="tram rail_urban rail rail_electric rail_fast ship container cable_car subway aircraft wheelchair scooter drone" speed="13.72" length="4.82" shape="498113.66,5796770.65 498109.65,5796767.97"/>
    </edge>
    <edge id=":cluster1837378574_1837414860_21" function="internal">
        <lane id=":cluster1837378574_1837414860_21_0" index="0" disallow="tram rail_urban rail rail_electric rail_fast ship container cable_car subway aircraft wheelchair scooter drone" speed="13.72" length="35.02" shape="498109.65,5796767.97 498101.83,5796762.74 498094.20,5796755.18 498090.78,5796747.98 498091.56,5796741.13"/>
    </edge>
    <edge id=":cluster1837378574_1837414860_4" function="internal">
        <lane id=":cluster1837378574_1837414860_4_0" index="0" disallow="tram rail_urban rail rail_electric rail_fast ship container cable_car subway aircraft wheelchair scooter drone" speed="9.31" length="17.74" shape="498116.14,5796751.78 498113.87,5796758.04 498112.91,5796762.90 498113.27,5796766.36 498114.95,5796768.40"/>
    </edge>
    <edge id=":cluster1837378574_1837414860_5" function="internal">
        <lane id=":cluster1837378574_1837414860_5_0" index="0" disallow="tram rail_urban rail rail_electric rail_fast ship container cable_car subway aircraft wheelchair scooter drone" speed="16.67" length="23.38" shape="498116.14,5796751.78 498113.01,5796757.93 498110.19,5796761.80 498107.33,5796765.65 498104.12,5796771.77"/>
        <lane id=":cluster1837378574_1837414860_5_1" index="1" disallow="tram rail_urban rail rail_electric rail_fast ship container cable_car subway aircraft wheelchair scooter drone" speed="16.67" length="23.38" shape="498113.20,5796750.50 498110.08,5796756.66 498107.25,5796760.52 498104.40,5796764.37 498101.19,5796770.48"/>
        <lane id=":cluster1837378574_1837414860_5_2" index="2" disallow="tram rail_urban rail rail_electric rail_fast ship container cable_car subway aircraft wheelchair scooter drone" speed="16.67" length="23.38" shape="498110.27,5796749.23 498107.14,5796755.38 498104.32,5796759.24 498101.47,5796763.09 498098.25,5796769.20"/>
        <lane id=":cluster1837378574_1837414860_5_3" index="3" disallow="tram rail_urban rail rail_electric rail_fast ship container cable_car subway aircraft wheelchair scooter drone" speed="16.67" length="23.38" shape="498107.33,5796747.96 498104.20,5796754.11 498101.38,5796757.96 498098.53,5796761.81 498095.32,5796767.92"/>
    </edge>
    <edge id=":cluster1837378574_1837414860_9" function="internal">
        <lane id=":cluster1837378574_1837414860_9_0" index="0" disallow="tram rail_urban rail rail_electric rail_fast ship container cable_car subway aircraft wheelchair scooter drone" speed="12.24" length="20.03" shape="498104.40,5796746.69 498099.09,5796754.03 498091.89,5796756.10 498088.50,5796755.27"/>
        <lane id=":cluster1837378574_1837414860_9_1" index="1" disallow="tram rail_urban rail rail_electric rail_fast ship container cable_car subway aircraft wheelchair scooter drone" speed="11.30" length="14.70" shape="498101.46,5796745.42 498097.04,5796751.17 498090.84,5796752.56 498089.79,5796752.28"/>
    </edge>
    <edge id=":cluster1837378574_1837414860_11" function="internal">
        <lane id=":cluster1837378574_1837414860_11_0" index="0" disallow="tram rail_urban rail rail_electric rail_fast ship container cable_car subway aircraft wheelchair scooter drone" speed="5.88" length="12.36" shape="498101.46,5796745.42 498097.38,5796748.06 498094.37,5796748.22 498092.43,5796745.91 498092.16,5796744.46"/>
    </edge>
    <edge id=":cluster1837378574_1837414860_22" function="internal">
        <lane id=":cluster1837378574_1837414860_22_0" index="0" disallow="tram rail_urban rail rail_electric rail_fast ship container cable_car subway aircraft wheelchair scooter drone" speed="12.24" length="17.92" shape="498088.50,5796755.27 498082.86,5796753.90 498072.05,5796748.43"/>
        <lane id=":cluster1837378574_1837414860_22_1" index="0" disallow="tram rail_urban rail rail_electric rail_fast ship container cable_car subway aircraft wheelchair scooter drone" speed="11.30" length="17.52" shape="498089.79,5796752.28 498082.99,5796750.44 498073.66,5796745.66"/>
    </edge>
    <edge id=":cluster1837378574_1837414860_23" function="internal">
        <lane id=":cluster1837378574_1837414860_23_0" index="0" disallow="tram rail_urban rail rail_electric rail_fast ship container cable_car subway aircraft wheelchair scooter drone" speed="5.88" length="3.39" shape="498092.16,5796744.46 498091.56,5796741.13"/>
    </edge>
    <edge id=":cluster1837378574_1837414860_12" function="internal">
        <lane id=":cluster1837378574_1837414860_12_0" index="0" disallow="tram rail_urban rail rail_electric rail_fast ship container cable_car subway aircraft wheelchair scooter drone" speed="6.68" length="10.43" shape="498076.87,5796740.13 498079.87,5796741.45 498082.33,5796741.63 498084.27,5796740.68 498085.69,5796738.58"/>
    </edge>
    <edge id=":cluster1837378574_1837414860_13" function="internal">
        <lane id=":cluster1837378574_1837414860_13_0" index="0" disallow="tram rail_urban rail rail_electric rail_fast ship container cable_car subway aircraft wheelchair scooter drone" speed="13.89" length="47.18" shape="498075.27,5796742.89 498114.95,5796768.40"/>
    </edge>
    <edge id=":cluster1837378574_1837414860_14" function="internal">
        <lane id=":cluster1837378574_1837414860_14_0" index="0" disallow="tram rail_urban rail rail_electric rail_fast ship container cable_car subway aircraft wheelchair scooter drone" speed="12.76" length="14.47" shape="498075.27,5796742.89 498085.79,5796749.84 498087.14,5796751.12"/>
    </edge>
    <edge id=":cluster1837378574_1837414860_24" function="internal">
        <lane id=":cluster1837378574_1837414860_24_0" index="0" disallow="tram rail_urban rail rail_electric rail_fast ship container cable_car subway aircraft wheelchair scooter drone" speed="12.76" length="19.97" shape="498087.14,5796751.12 498092.64,5796756.33 498095.82,5796762.35 498095.32,5796767.92"/>
    </edge>
    <edge id=":cluster1837378574_1837414860_15" function="internal">
        <lane id=":cluster1837378574_1837414860_15_0" index="0" disallow="tram rail_urban rail rail_electric rail_fast ship container cable_car subway aircraft wheelchair scooter drone" speed="7.47" length="11.15" shape="498073.58,5796758.40 498074.67,5796755.06 498074.78,5796752.28 498073.91,5796750.07 498072.05,5796748.43"/>
    </edge>
    <edge id=":cluster1837378574_1837414860_16" function="internal">
        <lane id=":cluster1837378574_1837414860_16_0" index="0" disallow="tram rail_urban rail rail_electric rail_fast ship container cable_car subway aircraft wheelchair scooter drone" speed="16.67" length="23.02" shape="498076.51,5796759.69 498085.69,5796738.58"/>
        <lane id=":cluster1837378574_1837414860_16_1" index="1" disallow="tram rail_urban rail rail_electric rail_fast ship container cable_car subway aircraft wheelchair scooter drone" speed="16.67" length="23.02" shape="498079.45,5796760.97 498088.62,5796739.86"/>
        <lane id=":cluster1837378574_1837414860_16_2" index="2" disallow="tram rail_urban rail rail_electric rail_fast ship container cable_car subway aircraft wheelchair scooter drone" speed="16.67" length="23.02" shape="498082.38,5796762.25 498091.56,5796741.13"/>
    </edge>
    <edge id=":cluster1837378574_1837414860_19" function="internal">
        <lane id=":cluster1837378574_1837414860_19_0" index="0" disallow="tram rail_urban rail rail_electric rail_fast ship container cable_car subway aircraft wheelchair scooter drone" speed="11.51" length="12.64" shape="498085.31,5796763.54 498089.40,5796759.70 498096.03,5796759.81 498096.41,5796759.95"/>
    </edge>
    <edge id=":cluster1837378574_1837414860_20" function="internal">
        <lane id=":cluster1837378574_1837414860_20_0" index="0" disallow="tram rail_urban rail rail_electric rail_fast ship container cable_car subway aircraft wheelchair scooter drone" speed="5.91" length="12.66" shape="498085.31,5796763.54 498089.46,5796760.88 498092.51,5796760.72 498094.46,5796763.07 498094.75,5796764.66"/>
    </edge>
    <edge id=":cluster1837378574_1837414860_25" function="internal">
        <lane id=":cluster1837378574_1837414860_25_0" index="0" disallow="tram rail_urban rail rail_electric rail_fast ship container cable_car subway aircraft wheelchair scooter drone" speed="11.51" length="20.42" shape="498096.41,5796759.95 498104.71,5796762.99 498114.95,5796768.40"/>
    </edge>
    <edge id=":cluster1837378574_1837414860_26" function="internal">
        <lane id=":cluster1837378574_1837414860_26_0" index="0" disallow="tram rail_urban rail rail_electric rail_fast ship container cable_car subway aircraft wheelchair scooter drone" speed="5.91" length="3.31" shape="498094.75,5796764.66 498095.32,5796767.92"/>
    </edge>

    <edge id="-143831377#0" from="1459336443" to="cluster1837378574_1837414860" priority="10" type="highway.tertiary" shape="497950.41,5796672.25 498084.25,5796749.96">
        <lane id="-143831377#0_0" index="0" disallow="tram rail_urban rail rail_electric rail_fast ship container cable_car subway aircraft wheelchair scooter drone" speed="13.89" length="143.45" shape="497952.82,5796668.10 498076.87,5796740.13"/>
        <lane id="-143831377#0_1" index="1" disallow="tram rail_urban rail rail_electric rail_fast ship container cable_car subway aircraft wheelchair scooter drone" speed="13.89" length="143.45" shape="497951.21,5796670.87 498075.27,5796742.89"/>
    </edge>
    <edge id="-178135939#0" from="1459336481" to="cluster1837378574_1837414860" priority="3" type="highway.residential" shape="498253.29,5796849.81 498103.01,5796762.62">
        <lane id="-178135939#0_0" index="0" disallow="tram rail_urban rail rail_electric rail_fast ship container cable_car subway aircraft wheelchair scooter drone" speed="13.89" length="160.50" shape="498252.49,5796851.19 498113.66,5796770.65"/>
    </edge>
    <edge id="140054145" from="3827134776" to="419254718" priority="12" type="highway.primary" spreadType="center">
        <lane id="140054145_0" index="0" disallow="tram rail_urban rail rail_electric rail_fast ship container cable_car subway aircraft wheelchair scooter drone" speed="16.67" length="6.86" shape="498027.41,5796867.90 498030.21,5796861.63"/>
        <lane id="140054145_1" index="1" disallow="tram rail_urban rail rail_electric rail_fast ship container cable_car subway aircraft wheelchair scooter drone" speed="16.67" length="6.86" shape="498030.33,5796869.20 498033.13,5796862.93"/>
        <lane id="140054145_2" index="2" disallow="tram rail_urban rail rail_electric rail_fast ship container cable_car subway aircraft wheelchair scooter drone" speed="16.67" length="6.86" shape="498033.25,5796870.51 498036.05,5796864.24"/>
        <lane id="140054145_3" index="3" disallow="tram rail_urban rail rail_electric rail_fast ship container cable_car subway aircraft wheelchair scooter drone" speed="16.67" length="6.86" shape="498036.17,5796871.81 498038.97,5796865.54"/>
        <param key="ref" value="61"/>
    </edge>
    <edge id="143831362#0" from="cluster1837378574_1837414860" to="419283227" priority="12" type="highway.primary" spreadType="center" shape="498084.25,5796749.96 498087.75,5796741.88 498101.01,5796711.19 498189.67,5796504.74">
        <lane id="143831362#0_0" index="0" disallow="tram rail_urban rail rail_electric rail_fast ship container cable_car subway aircraft wheelchair scooter drone" speed="16.67" length="251.91" shape="498085.69,5796738.58 498098.07,5796709.92 498185.15,5796507.15"/>
        <lane id="143831362#0_1" index="1" disallow="tram rail_urban rail rail_electric rail_fast ship container cable_car subway aircraft wheelchair scooter drone" speed="16.67" length="251.91" shape="498088.62,5796739.86 498101.01,5796711.19 498188.09,5796508.41"/>
        <lane id="143831362#0_2" index="2" disallow="tram rail_urban rail rail_electric rail_fast ship container cable_car subway aircraft wheelchair scooter drone" speed="16.67" length="251.91" shape="498091.56,5796741.13 498103.95,5796712.46 498191.03,5796509.68"/>
        <param key="ref" value="61"/>
    </edge>
    <edge id="143831363#1" from="2394886913" to="cluster1837378574_1837414860" priority="12" type="highway.primary" spreadType="center" shape="498155.48,5796637.75 498106.60,5796753.82 498102.64,5796763.17">
        <lane id="143831363#1_0" index="0" disallow="tram rail_urban rail rail_electric rail_fast ship container cable_car subway aircraft wheelchair scooter drone" speed="16.67" length="116.28" shape="498161.30,5796644.54 498116.14,5796751.78"/>
        <lane id="143831363#1_1" index="1" disallow="tram rail_urban rail rail_electric rail_fast ship container cable_car subway aircraft wheelchair scooter drone" speed="16.67" length="116.28" shape="498158.35,5796643.30 498113.20,5796750.50"/>
        <lane id="143831363#1_2" index="2" disallow="tram rail_urban rail rail_electric rail_fast ship container cable_car subway aircraft wheelchair scooter drone" speed="16.67" length="116.28" shape="498155.40,5796642.06 498110.27,5796749.23"/>
        <lane id="143831363#1_3" index="3" disallow="tram rail_urban rail rail_electric rail_fast ship container cable_car subway aircraft wheelchair scooter drone" speed="16.67" length="116.28" shape="498152.45,5796640.81 498107.33,5796747.96"/>
        <lane id="143831363#1_4" index="4" disallow="tram rail_urban rail rail_electric rail_fast ship container cable_car subway aircraft wheelchair scooter drone" speed="16.67" length="116.28" shape="498149.50,5796639.57 498104.40,5796746.69"/>
        <lane id="143831363#1_5" index="5" disallow="tram rail_urban rail rail_electric rail_fast ship container cable_car subway aircraft wheelchair scooter drone" speed="16.67" length="116.28" shape="498146.56,5796638.33 498101.46,5796745.42"/>
        <param key="ref" value="61"/>
    </edge>
    <edge id="143831377#0" from="cluster1837378574_1837414860" to="1459336443" priority="10" type="highway.tertiary" shape="498084.25,5796749.96 497950.41,5796672.25">
        <lane id="143831377#0_0" index="0" disallow="tram rail_urban rail rail_electric rail_fast ship container cable_car subway aircraft wheelchair scooter drone" speed="13.89" length="143.45" shape="498072.05,5796748.43 497948.00,5796676.40"/>
        <lane id="143831377#0_1" index="1" disallow="tram rail_urban rail rail_electric rail_fast ship container cable_car subway aircraft wheelchair scooter drone" speed="13.89" length="143.45" shape="498073.66,5796745.66 497949.61,5796673.63"/>
    </edge>
    <edge id="178135939#0" from="cluster1837378574_1837414860" to="1459336481" priority="3" type="highway.residential" shape="498102.64,5796763.17 498253.29,5796849.81">
        <lane id="178135939#0_0" index="0" disallow="tram rail_urban rail rail_electric rail_fast ship container cable_car subway aircraft wheelchair scooter drone" speed="13.89" length="160.51" shape="498114.95,5796768.40 498254.09,5796848.42"/>
    </edge>
    <edge id="178135941#0" from="cluster1837378574_1837414860" to="1459336494" priority="12" type="highway.primary" spreadType="center" shape="498102.64,5796763.17 498006.68,5796982.45">
        <lane id="178135941#0_0" index="0" disallow="tram rail_urban rail rail_electric rail_fast ship container cable_car subway aircraft wheelchair scooter drone" speed="16.67" length="232.07" shape="498104.12,5796771.77 498011.08,5796984.37"/>
        <lane id="178135941#0_1" index="1" disallow="tram rail_urban rail rail_electric rail_fast ship container cable_car subway aircraft wheelchair scooter drone" speed="16.67" length="232.07" shape="498101.19,5796770.48 498008.15,5796983.09"/>
        <lane id="178135941#0_2" index="2" disallow="tram rail_urban rail rail_electric rail_fast ship container cable_car subway aircraft wheelchair scooter drone" speed="16.67" length="232.07" shape="498098.25,5796769.20 498005.21,5796981.81"/>
        <lane id="178135941#0_3" index="3" disallow="tram rail_urban rail rail_electric rail_fast ship container cable_car subway aircraft wheelchair scooter drone" speed="16.67" length="232.07" shape="498095.32,5796767.92 498002.28,5796980.53"/>
        <param key="ref" value="61"/>
    </edge>
    <edge id="179245142#0" from="419283227" to="3168399961" priority="12" type="highway.primary" spreadType="center" shape="498189.67,5796504.74 498199.02,5796482.58 498209.35,5796458.45">
        <lane id="179245142#0_0" index="0" disallow="tram rail_urban rail rail_electric rail_fast ship container cable_car subway aircraft wheelchair scooter drone" speed="16.67" length="46.30" shape="498186.80,5796499.19 498194.60,5796480.70 498204.94,5796456.56"/>
        <lane id="179245142#0_1" index="1" disallow="tram rail_urban rail rail_electric rail_fast ship container cable_car subway aircraft wheelchair scooter drone" speed="16.67" length="46.30" shape="498189.75,5796500.43 498197.55,5796481.95 498207.88,5796457.82"/>
        <lane id="179245142#0_2" index="2" disallow="tram rail_urban rail rail_electric rail_fast ship container cable_car subway aircraft wheelchair scooter drone" speed="16.67" length="46.30" shape="498192.70,5796501.68 498200.49,5796483.21 498210.82,5796459.08"/>
        <lane id="179245142#0_3" index="3" disallow="tram rail_urban rail rail_electric rail_fast ship container cable_car subway aircraft wheelchair scooter drone" speed="16.67" length="46.30" shape="498195.65,5796502.92 498203.44,5796484.46 498213.76,5796460.34"/>
        <param key="ref" value="61"/>
    </edge>
    <edge id="179245145#4" from="419281110" to="2394886913" priority="12" type="highway.primary" spreadType="center">
        <lane id="179245145#4_0" index="0" disallow="tram rail_urban rail rail_electric rail_fast ship container cable_car subway aircraft wheelchair scooter drone" speed="16.67" length="182.79" shape="498232.38,5796467.50 498160.00,5796635.35"/>
        <lane id="179245145#4_1" index="1" disallow="tram rail_urban rail rail_electric rail_fast ship container cable_car subway aircraft wheelchair scooter drone" speed="16.67" length="182.79" shape="498229.44,5796466.23 498157.06,5796634.08"/>
        <lane id="179245145#4_2" index="2" disallow="tram rail_urban rail rail_electric rail_fast ship container cable_car subway aircraft wheelchair scooter drone" speed="16.67" length="182.79" shape="498226.50,5796464.96 498154.12,5796632.81"/>
        <param key="ref" value="61"/>
    </edge>
    <edge id="379408509#2" from="3827134775" to="cluster1837378574_1837414860" priority="12" type="highway.primary" spreadType="center" shape="498039.24,5796853.10 498084.25,5796749.96">
        <lane id="379408509#2_0" index="0" disallow="tram rail_urban rail rail_electric rail_fast ship container cable_car subway aircraft wheelchair scooter drone" speed="16.67" length="96.52" shape="498034.97,5796846.87 498073.58,5796758.40"/>
        <lane id="379408509#2_1" index="1" disallow="tram rail_urban rail rail_electric rail_fast ship container cable_car subway aircraft wheelchair scooter drone" speed="16.67" length="96.52" shape="498037.91,5796848.15 498076.51,5796759.69"/>
        <lane id="379408509#2_2" index="2" disallow="tram rail_urban rail rail_electric rail_fast ship container cable_car subway aircraft wheelchair scooter drone" speed="16.67" length="96.52" shape="498040.84,5796849.43 498079.45,5796760.97"/>