<?xml version="1.0" encoding="UTF-8"?>

<!-- generated on 2026-05-19T17:14:29.083555+01:00 by Eclipse SUMO netedit 1.26.0
<neteditConfiguration xmlns:xsi="http://www.w3.org/2001/XMLSchema-instance" xsi:noNamespaceSchemaLocation="http://sumo.dlr.de/xsd/neteditConfiguration.xsd">

    <input>
        <sumo-net-file value="C:\Users\oleks\Downloads\MODL_GOT.net.xml"/>
        <osm-files value="C:\Users\oleks\Downloads\modlinska-swiatowida-kolacinska.osm"/>
    </input>

    <output>
        <output-file value="C:\Users\oleks\Downloads\MODL_GOT.net.xml"/>
    </output>

    <projection>
        <proj.utm value="true"/>
    </projection>

    <processing>
        <geometry.remove value="true"/>
        <offset.disable-normalization value="true"/>
    </processing>

    <tls_building>
        <tls.discard-simple value="true"/>
        <tls.guess-signals value="true"/>
    </tls_building>

    <ramp_guessing>
        <ramps.guess value="true"/>
    </ramp_guessing>

    <junctions>
        <no-turnarounds value="true"/>
        <junctions.join value="true"/>
    </junctions>

</neteditConfiguration>
-->

<net version="1.20" junctionCornerDetail="5" limitTurnSpeed="5.50" xmlns:xsi="http://www.w3.org/2001/XMLSchema-instance" xsi:noNamespaceSchemaLocation="http://sumo.dlr.de/xsd/net_file.xsd">

    <location netOffset="0.00,0.00" convBoundary="497383.27,5788782.22,498615.40,5797339.38" origBoundary="20.943051,52.249438,20.991616,52.331193" projParameter="+proj=utm +zone=34 +ellps=WGS84 +datum=WGS84 +units=m +no_defs"/>

    <type id="highway.cycleway" priority="1" numLanes="1" speed="5.56" allow="bicycle" oneway="0" width="2.00"/>
    <type id="highway.footway" priority="1" numLanes="1" speed="2.78" allow="pedestrian" oneway="1" width="2.00"/>
    <type id="highway.living_street" priority="2" numLanes="1" speed="2.78" disallow="tram rail_urban rail rail_electric rail_fast ship container cable_car subway aircraft wheelchair scooter drone" oneway="0"/>
    <type id="highway.path" priority="1" numLanes="1" speed="5.56" allow="pedestrian bicycle" oneway="0" width="2.00"/>
    <type id="highway.primary" priority="12" numLanes="2" speed="27.78" disallow="tram rail_urban rail rail_electric rail_fast ship container cable_car subway aircraft wheelchair scooter drone" oneway="0"/>
    <type id="highway.residential" priority="3" numLanes="1" speed="13.89" disallow="tram rail_urban rail rail_electric rail_fast ship container cable_car subway aircraft wheelchair scooter drone" oneway="0"/>
    <type id="highway.service" priority="1" numLanes="1" speed="5.56" allow="pedestrian delivery bicycle" oneway="0"/>
    <type id="highway.tertiary" priority="10" numLanes="1" speed="22.22" disallow="tram rail_urban rail rail_electric rail_fast ship container cable_car subway aircraft wheelchair scooter drone" oneway="0"/>
    <type id="highway.unclassified" priority="4" numLanes="1" speed="13.89" disallow="tram rail_urban rail rail_electric rail_fast ship container cable_car subway aircraft wheelchair scooter drone" oneway="0"/>
    <type id="railway.tram" priority="17" numLanes="1" speed="13.89" allow="tram" oneway="1"/>

    <edge id=":10759830036_0" function="internal">
        <lane id=":10759830036_0_0" index="0" disallow="tram rail_urban rail rail_electric rail_fast ship container cable_car subway aircraft wheelchair scooter drone" speed="13.89" length="0.25" shape="497815.99,5796424.77 497815.85,5796425.03"/>
        <lane id=":10759830036_0_1" index="1" disallow="tram rail_urban rail rail_electric rail_fast ship container cable_car subway aircraft wheelchair scooter drone" speed="13.89" length="0.25" shape="497813.12,5796423.35 497813.03,5796423.53"/>
    </edge>
    <edge id=":10759830037_0" function="internal">
        <lane id=":10759830037_0_0" index="0" disallow="tram rail_urban rail rail_electric rail_fast ship container cable_car subway aircraft wheelchair scooter drone" speed="13.89" length="0.30" shape="497807.81,5796419.61 497807.96,5796419.35"/>
        <lane id=":10759830037_0_1" index="1" disallow="tram rail_urban rail rail_electric rail_fast ship container cable_car subway aircraft wheelchair scooter drone" speed="13.89" length="0.30" shape="497810.58,5796421.21 497810.73,5796420.95"/>
    </edge>
    <edge id=":11247694162_0" function="internal">
        <lane id=":11247694162_0_0" index="0" allow="pedestrian bicycle" speed="5.56" length="5.53" width="2.00" shape="498085.41,5796846.30 498083.34,5796851.43"/>
    </edge>
    <edge id=":11247694162_1" function="internal">
        <lane id=":11247694162_1_0" index="0" allow="pedestrian bicycle" speed="5.56" length="5.53" width="2.00" shape="498081.49,5796850.68 498083.55,5796845.55"/>
    </edge>
    <edge id=":11248022255_0" function="internal">
        <lane id=":11248022255_0_0" index="0" allow="pedestrian bicycle" speed="4.57" length="3.53" width="2.00" shape="497540.40,5796409.84 497539.79,5796410.37 497539.05,5796410.62 497538.18,5796410.57 497537.17,5796410.22"/>
    </edge>
    <edge id=":11248022255_1" function="internal">
        <lane id=":11248022255_1_0" index="0" allow="pedestrian bicycle" speed="5.56" length="0.95" width="2.00" shape="497538.01,5796408.40 497538.26,5796408.55 497538.46,5796408.69 497538.64,5796408.73 497538.83,5796408.60"/>
    </edge>
    <edge id=":11329844331_0" function="internal">
        <lane id=":11329844331_0_0" index="0" allow="pedestrian delivery bicycle" speed="8.33" length="0.10" shape="497895.89,5797317.00 497895.89,5797317.00"/>
    </edge>
    <edge id=":11329844331_1" function="internal">
        <lane id=":11329844331_1_0" index="0" allow="pedestrian delivery bicycle" speed="8.33" length="0.10" shape="497892.85,5797315.98 497892.85,5797315.98"/>
    </edge>
    <edge id=":11491426633_0" function="internal">
        <lane id=":11491426633_0_0" index="0" allow="pedestrian delivery bicycle" speed="4.98" length="5.07" shape="498006.93,5796909.55 498008.25,5796910.01 498009.39,5796909.93 498010.33,5796909.29 498011.08,5796908.11"/>
    </edge>
    <edge id=":11491426633_1" function="internal">
        <lane id=":11491426633_1_0" index="0" allow="pedestrian delivery bicycle" speed="5.26" length="5.25" shape="498007.26,5796916.70 498007.60,5796915.40 498007.41,5796914.25 498006.69,5796913.24 498005.45,5796912.38"/>
    </edge>
    <edge id=":11491426633_2" function="internal">
        <lane id=":11491426633_2_0" index="0" disallow="tram rail_urban rail rail_electric rail_fast ship container cable_car subway aircraft wheelchair scooter drone" speed="16.67" length="9.36" shape="498007.26,5796916.70 498011.08,5796908.11"/>
        <lane id=":11491426633_2_1" index="1" disallow="tram rail_urban rail rail_electric rail_fast ship container cable_car subway aircraft wheelchair scooter drone" speed="16.67" length="9.36" shape="498010.19,5796917.98 498014.00,5796909.42"/>
        <lane id=":11491426633_2_2" index="2" disallow="tram rail_urban rail rail_electric rail_fast ship container cable_car subway aircraft wheelchair scooter drone" speed="16.67" length="9.36" shape="498013.12,5796919.26 498016.91,5796910.74"/>
    </edge>
    <edge id=":11545893424_0" function="internal">
        <lane id=":11545893424_0_0" index="0" disallow="tram rail_urban rail rail_electric rail_fast ship container cable_car subway aircraft wheelchair scooter drone" speed="13.89" length="0.10" shape="497784.66,5796519.04 497784.66,5796519.04"/>
        <lane id=":11545893424_0_1" index="1" disallow="tram rail_urban rail rail_electric rail_fast ship container cable_car subway aircraft wheelchair scooter drone" speed="13.89" length="0.10" shape="497781.95,5796517.33 497781.95,5796517.33"/>
    </edge>
    <edge id=":11545893424_2" function="internal">
        <lane id=":11545893424_2_0" index="0" disallow="tram rail_urban rail rail_electric rail_fast ship container cable_car subway aircraft wheelchair scooter drone" speed="13.89" length="0.10" shape="497779.25,5796515.63 497779.25,5796515.63"/>
    </edge>
    <edge id=":11545893435_0" function="internal">
        <lane id=":11545893435_0_0" index="0" disallow="tram rail_urban rail rail_electric rail_fast ship container cable_car subway aircraft wheelchair scooter drone" speed="13.89" length="0.10" shape="498062.64,5796739.60 498062.64,5796739.60"/>
        <lane id=":11545893435_0_1" index="1" disallow="tram rail_urban rail rail_electric rail_fast ship container cable_car subway aircraft wheelchair scooter drone" speed="13.89" length="0.10" shape="498064.61,5796737.07 498064.61,5796737.07"/>
    </edge>
    <edge id=":11545893435_2" function="internal">
        <lane id=":11545893435_2_0" index="0" disallow="tram rail_urban rail rail_electric rail_fast ship container cable_car subway aircraft wheelchair scooter drone" speed="13.89" length="0.10" shape="498068.54,5796732.02 498068.54,5796732.02"/>
        <lane id=":11545893435_2_1" index="1" disallow="tram rail_urban rail rail_electric rail_fast ship container cable_car subway aircraft wheelchair scooter drone" speed="13.89" length="0.10" shape="498066.57,5796734.55 498066.57,5796734.55"/>
    </edge>
    <edge id=":11545893436_0" function="internal">
        <lane id=":11545893436_0_0" index="0" disallow="tram rail_urban rail rail_electric rail_fast ship container cable_car subway aircraft wheelchair scooter drone" speed="16.67" length="0.30" shape="498062.48,5796784.88 498062.60,5796784.61"/>
        <lane id=":11545893436_0_1" index="1" disallow="tram rail_urban rail rail_electric rail_fast ship container cable_car subway aircraft wheelchair scooter drone" speed="16.67" length="0.30" shape="498065.40,5796786.18 498065.53,5796785.91"/>
        <lane id=":11545893436_0_2" index="2" disallow="tram rail_urban rail rail_electric rail_fast ship container cable_car subway aircraft wheelchair scooter drone" speed="16.67" length="0.30" shape="498068.33,5796787.48 498068.45,5796787.20"/>
        <lane id=":11545893436_0_3" index="3" disallow="tram rail_urban rail rail_electric rail_fast ship container cable_car subway aircraft wheelchair scooter drone" speed="16.67" length="0.30" shape="498071.25,5796788.77 498071.38,5796788.50"/>
        <lane id=":11545893436_0_4" index="4" disallow="tram rail_urban rail rail_electric rail_fast ship container cable_car subway aircraft wheelchair scooter drone" speed="16.67" length="0.30" shape="498074.18,5796790.07 498074.30,5796789.80"/>
    </edge>
    <edge id=":11545893437_0" function="internal">
        <lane id=":11545893437_0_0" index="0" disallow="tram rail_urban rail rail_electric rail_fast ship container cable_car subway aircraft wheelchair scooter drone" speed="16.67" length="0.10" shape="498122.26,5796737.37 498122.26,5796737.37"/>
        <lane id=":11545893437_0_1" index="1" disallow="tram rail_urban rail rail_electric rail_fast ship container cable_car subway aircraft wheelchair scooter drone" speed="16.67" length="0.10" shape="498119.31,5796736.12 498119.31,5796736.12"/>
        <lane id=":11545893437_0_2" index="2" disallow="tram rail_urban rail rail_electric rail_fast ship container cable_car subway aircraft wheelchair scooter drone" speed="16.67" length="0.10" shape="498116.36,5796734.87 498116.36,5796734.87"/>
        <lane id=":11545893437_0_3" index="3" disallow="tram rail_urban rail rail_electric rail_fast ship container cable_car subway aircraft wheelchair scooter drone" speed="16.67" length="0.10" shape="498113.42,5796733.63 498113.42,5796733.63"/>
        <lane id=":11545893437_0_4" index="4" disallow="tram rail_urban rail rail_electric rail_fast ship container cable_car subway aircraft wheelchair scooter drone" speed="16.67" length="0.10" shape="498110.47,5796732.38 498110.47,5796732.38"/>
        <lane id=":11545893437_0_5" index="5" disallow="tram rail_urban rail rail_electric rail_fast ship container cable_car subway aircraft wheelchair scooter drone" speed="16.67" length="0.10" shape="498107.52,5796731.13 498107.52,5796731.13"/>
    </edge>
    <edge id=":11545893438_0" function="internal">
        <lane id=":11545893438_0_0" index="0" disallow="tram rail_urban rail rail_electric rail_fast ship container cable_car subway aircraft wheelchair scooter drone" speed="13.89" length="0.22" shape="498119.14,5796775.57 498119.33,5796775.69"/>
    </edge>
    <edge id=":11545893438_1" function="internal">
        <lane id=":11545893438_1_0" index="0" disallow="tram rail_urban rail rail_electric rail_fast ship container cable_car subway aircraft wheelchair scooter drone" speed="13.89" length="0.22" shape="498121.04,5796772.99 498120.86,5796772.87"/>
    </edge>
    <edge id=":1166893226_0" function="internal">
        <lane id=":1166893226_0_0" index="0" allow="bicycle" speed="3.92" length="3.02" width="2.00" shape="497914.10,5796643.98 497913.11,5796643.46 497912.33,5796643.23 497911.75,5796643.28 497911.36,5796643.61"/>
    </edge>
    <edge id=":1166893226_1" function="internal">
        <lane id=":1166893226_1_0" index="0" allow="bicycle" speed="5.56" length="11.95" width="2.00" shape="497914.10,5796643.98 497904.09,5796637.44"/>
    </edge>
    <edge id=":1166893226_2" function="internal">
        <lane id=":1166893226_2_0" index="0" allow="bicycle" speed="6.46" length="9.46" width="2.00" shape="497914.10,5796643.98 497911.65,5796642.15 497910.27,5796640.27 497909.95,5796638.34 497910.70,5796636.36"/>
    </edge>
    <edge id=":1166893226_3" function="internal">
        <lane id=":1166893226_3_0" index="0" allow="bicycle" speed="4.63" length="4.14" width="2.00" shape="497914.41,5796638.74 497913.92,5796639.79 497913.88,5796640.73 497914.28,5796641.56 497915.14,5796642.27"/>
    </edge>
    <edge id=":1166893226_4" function="internal">
        <lane id=":1166893226_4_0" index="0" disallow="tram rail_urban rail rail_electric rail_fast ship container cable_car subway aircraft wheelchair scooter drone" speed="13.89" length="5.77" shape="497913.90,5796638.41 497910.85,5796643.31"/>
    </edge>
    <edge id=":1166893226_5" function="internal">
        <lane id=":1166893226_5_0" index="0" allow="bicycle" speed="6.89" length="0.51" width="2.00" shape="497913.40,5796638.09 497913.03,5796638.44"/>
    </edge>
    <edge id=":1166893226_13" function="internal">
        <lane id=":1166893226_13_0" index="0" allow="bicycle" speed="6.89" length="9.97" width="2.00" shape="497913.03,5796638.44 497911.86,5796639.54 497909.79,5796639.92 497907.21,5796639.22 497904.09,5796637.44"/>
    </edge>
    <edge id=":1166893226_6" function="internal">
        <lane id=":1166893226_6_0" index="0" allow="bicycle" speed="4.10" length="3.43" width="2.00" shape="497905.22,5796635.79 497905.93,5796636.09 497906.63,5796635.99 497907.32,5796635.51 497908.01,5796634.64"/>
    </edge>
    <edge id=":1166893226_7" function="internal">
        <lane id=":1166893226_7_0" index="0" allow="bicycle" speed="5.56" length="11.85" width="2.00" shape="497905.22,5796635.79 497915.14,5796642.27"/>
    </edge>
    <edge id=":1166893226_8" function="internal">
        <lane id=":1166893226_8_0" index="0" allow="bicycle" speed="7.03" length="10.57" width="2.00" shape="497905.22,5796635.79 497908.48,5796638.25 497910.59,5796640.37 497911.55,5796642.16 497911.36,5796643.61"/>
    </edge>
    <edge id=":1166893226_9" function="internal">
        <lane id=":1166893226_9_0" index="0" allow="bicycle" speed="4.04" length="2.70" width="2.00" shape="497904.83,5796639.73 497905.07,5796639.11 497905.02,5796638.53 497904.70,5796637.97 497904.09,5796637.44"/>
    </edge>
    <edge id=":1166893226_10" function="internal">
        <lane id=":1166893226_10_0" index="0" disallow="tram rail_urban rail rail_electric rail_fast ship container cable_car subway aircraft wheelchair scooter drone" speed="13.89" length="5.93" shape="497905.35,5796640.04 497908.51,5796634.96"/>
        <lane id=":1166893226_10_1" index="1" disallow="tram rail_urban rail rail_electric rail_fast ship container cable_car subway aircraft wheelchair scooter drone" speed="13.89" length="5.93" shape="497908.10,5796641.67 497911.21,5796636.69"/>
    </edge>
    <edge id=":1166893226_12" function="internal">
        <lane id=":1166893226_12_0" index="0" allow="bicycle" speed="5.89" length="0.53" width="2.00" shape="497908.61,5796641.98 497908.99,5796641.60"/>
    </edge>
    <edge id=":1166893226_14" function="internal">
        <lane id=":1166893226_14_0" index="0" allow="bicycle" speed="5.89" length="6.75" width="2.00" shape="497908.99,5796641.60 497909.62,5796640.99 497911.05,5796640.70 497912.88,5796641.13 497915.14,5796642.27"/>
    </edge>
    <edge id=":1166893694_0" function="internal">
        <lane id=":1166893694_0_0" index="0" allow="bicycle" speed="4.70" length="4.11" width="2.00" shape="497935.31,5796642.36 497934.32,5796641.89 497933.39,5796641.87 497932.54,5796642.27 497931.76,5796643.11"/>
    </edge>
    <edge id=":1166893694_1" function="internal">
        <lane id=":1166893694_1_0" index="0" disallow="tram rail_urban rail rail_electric rail_fast ship container cable_car subway aircraft wheelchair scooter drone" speed="13.89" length="5.98" shape="497935.64,5796641.86 497930.65,5796638.57"/>
        <lane id=":1166893694_1_1" index="1" disallow="tram rail_urban rail rail_electric rail_fast ship container cable_car subway aircraft wheelchair scooter drone" speed="13.89" length="5.98" shape="497937.40,5796639.19 497932.41,5796635.90"/>
    </edge>
    <edge id=":1166893694_3" function="internal">
        <lane id=":1166893694_3_0" index="0" allow="bicycle" speed="7.32" length="0.48" width="2.00" shape="497937.73,5796638.68 497937.42,5796638.32"/>
    </edge>
    <edge id=":1166893694_14" function="internal">
        <lane id=":1166893694_14_0" index="0" allow="bicycle" speed="7.32" length="10.64" width="2.00" shape="497937.42,5796638.32 497936.46,5796637.17 497936.18,5796634.97 497936.90,5796632.09 497938.61,5796628.53"/>
    </edge>
    <edge id=":1166893694_4" function="internal">
        <lane id=":1166893694_4_0" index="0" allow="bicycle" speed="4.72" length="4.42" width="2.00" shape="497940.35,5796629.52 497939.91,5796630.64 497939.91,5796631.65 497940.36,5796632.55 497941.26,5796633.34"/>
    </edge>
    <edge id=":1166893694_5" function="internal">
        <lane id=":1166893694_5_0" index="0" allow="bicycle" speed="5.56" length="16.09" width="2.00" shape="497940.35,5796629.52 497938.37,5796632.90 497936.21,5796636.41 497933.97,5796639.87 497931.76,5796643.11"/>
    </edge>
    <edge id=":1166893694_6" function="internal">
        <lane id=":1166893694_6_0" index="0" allow="bicycle" speed="7.04" length="11.71" width="2.00" shape="497940.35,5796629.52 497937.93,5796633.31 497935.74,5796635.72 497933.79,5796636.75 497932.08,5796636.40"/>
    </edge>
    <edge id=":1166893694_7" function="internal">
        <lane id=":1166893694_7_0" index="0" allow="bicycle" speed="4.12" length="3.14" width="2.00" shape="497936.26,5796630.05 497936.81,5796630.22 497937.39,5796630.03 497937.99,5796629.46 497938.61,5796628.53"/>
    </edge>
    <edge id=":1166893694_8" function="internal">
        <lane id=":1166893694_8_0" index="0" disallow="tram rail_urban rail rail_electric rail_fast ship container cable_car subway aircraft wheelchair scooter drone" speed="13.89" length="5.99" shape="497935.93,5796630.55 497940.93,5796633.84"/>
        <lane id=":1166893694_8_1" index="1" disallow="tram rail_urban rail rail_electric rail_fast ship container cable_car subway aircraft wheelchair scooter drone" speed="13.89" length="5.99" shape="497934.17,5796633.22 497939.17,5796636.51"/>
    </edge>
    <edge id=":1166893694_10" function="internal">
        <lane id=":1166893694_10_0" index="0" allow="bicycle" speed="6.90" length="0.46" width="2.00" shape="497933.84,5796633.72 497934.12,5796634.09"/>
    </edge>
    <edge id=":1166893694_15" function="internal">
        <lane id=":1166893694_15_0" index="0" allow="bicycle" speed="6.90" length="10.06" width="2.00" shape="497934.12,5796634.09 497934.86,5796635.07 497934.86,5796637.08 497933.83,5796639.77 497931.76,5796643.11"/>
    </edge>
    <edge id=":1166893694_11" function="internal">
        <lane id=":1166893694_11_0" index="0" allow="bicycle" speed="4.02" length="3.27" width="2.00" shape="497930.13,5796641.97 497930.68,5796641.01 497930.90,5796640.21 497930.78,5796639.56 497930.32,5796639.07"/>
    </edge>
    <edge id=":1166893694_12" function="internal">
        <lane id=":1166893694_12_0" index="0" allow="bicycle" speed="5.56" length="15.90" width="2.00" shape="497930.13,5796641.97 497932.31,5796638.75 497934.52,5796635.34 497936.65,5796631.89 497938.61,5796628.53"/>
    </edge>
    <edge id=":1166893694_13" function="internal">
        <lane id=":1166893694_13_0" index="0" allow="bicycle" speed="7.39" length="12.07" width="2.00" shape="497930.13,5796641.97 497932.89,5796638.48 497935.37,5796636.33 497937.58,5796635.51 497939.50,5796636.01"/>
    </edge>
    <edge id=":1166894877_0" function="internal">
        <lane id=":1166894877_0_0" index="0" disallow="tram rail_urban rail rail_electric rail_fast ship container cable_car subway aircraft wheelchair scooter drone" speed="13.89" length="4.53" shape="497899.07,5796681.38 497898.12,5796680.43 497897.43,5796679.82 497896.67,5796679.30 497895.52,5796678.62"/>
    </edge>
    <edge id=":1166894877_1" function="internal">
        <lane id=":1166894877_1_0" index="0" disallow="tram rail_urban rail rail_electric rail_fast ship container cable_car subway aircraft wheelchair scooter drone" speed="13.89" length="5.37" shape="497897.13,5796675.85 497898.50,5796676.67 497899.40,5796677.28 497900.22,5796678.01 497901.35,5796679.13"/>
    </edge>
    <edge id=":1166894911_0" function="internal">
        <lane id=":1166894911_0_0" index="0" disallow="tram rail_urban rail rail_electric rail_fast ship container cable_car subway aircraft wheelchair scooter drone" speed="13.89" length="5.16" shape="497785.85,5796541.19 497790.36,5796543.78"/>
        <lane id=":1166894911_0_1" index="1" disallow="tram rail_urban rail rail_electric rail_fast ship container cable_car subway aircraft wheelchair scooter drone" speed="13.89" length="5.16" shape="497784.29,5796543.99 497788.74,5796546.53"/>
    </edge>
    <edge id=":11675915569_0" function="internal">
        <lane id=":11675915569_0_0" index="0" disallow="tram rail_urban rail rail_electric rail_fast ship container cable_car subway aircraft wheelchair scooter drone" speed="16.67" length="0.30" shape="497920.29,5797125.07 497920.39,5797124.79"/>
        <lane id=":11675915569_0_1" index="1" disallow="tram rail_urban rail rail_electric rail_fast ship container cable_car subway aircraft wheelchair scooter drone" speed="16.67" length="0.30" shape="497923.30,5797126.15 497923.40,5797125.87"/>
        <lane id=":11675915569_0_2" index="2" disallow="tram rail_urban rail rail_electric rail_fast ship container cable_car subway aircraft wheelchair scooter drone" speed="16.67" length="0.30" shape="497926.31,5797127.24 497926.41,5797126.95"/>
    </edge>
    <edge id=":11675915570_0" function="internal">
        <lane id=":11675915570_0_0" index="0" disallow="tram rail_urban rail rail_electric rail_fast ship container cable_car subway aircraft wheelchair scooter drone" speed="16.67" length="0.30" shape="497952.75,5797124.45 497952.64,5797124.72"/>
        <lane id=":11675915570_0_1" index="1" disallow="tram rail_urban rail rail_electric rail_fast ship container cable_car subway aircraft wheelchair scooter drone" speed="16.67" length="0.30" shape="497949.80,5797123.22 497949.68,5797123.50"/>
        <lane id=":11675915570_0_2" index="2" disallow="tram rail_urban rail rail_electric rail_fast ship container cable_car subway aircraft wheelchair scooter drone" speed="16.67" length="0.30" shape="497946.84,5797121.99 497946.73,5797122.28"/>
    </edge>
    <edge id=":12296274612_0" function="internal">
        <lane id=":12296274612_0_0" index="0" allow="pedestrian bicycle" speed="5.56" length="3.14" width="2.00" shape="498070.69,5796882.85 498069.52,5796885.77"/>
    </edge>
    <edge id=":12296274612_1" function="internal">
        <lane id=":12296274612_1_0" index="0" allow="pedestrian bicycle" speed="5.56" length="3.14" width="2.00" shape="498067.66,5796885.02 498068.84,5796882.10"/>
    </edge>
    <edge id=":12296309850_0" function="internal">
        <lane id=":12296309850_0_0" index="0" allow="pedestrian bicycle" speed="5.56" length="1.86" width="2.00" shape="498118.79,5796767.47 498118.37,5796769.28"/>
    </edge>
    <edge id=":12296309850_1" function="internal">
        <lane id=":12296309850_1_0" index="0" allow="pedestrian bicycle" speed="5.56" length="2.02" width="2.00" shape="498116.39,5796768.98 498116.84,5796767.02"/>
    </edge>
    <edge id=":12985263172_0" function="internal">
        <lane id=":12985263172_0_0" index="0" allow="pedestrian bicycle" speed="4.52" length="4.98" width="2.00" shape="497996.94,5796925.81 497995.73,5796925.06 497994.72,5796925.02 497993.90,5796925.67 497993.28,5796927.03"/>
    </edge>
    <edge id=":12985263172_1" function="internal">
        <lane id=":12985263172_1_0" index="0" allow="pedestrian bicycle" speed="5.56" length="9.16" width="2.00" shape="497996.94,5796925.81 497995.28,5796924.00 497994.41,5796922.02 497994.34,5796919.89 497995.07,5796917.59"/>
    </edge>
    <edge id=":12985263172_2" function="internal">
        <lane id=":12985263172_2_0" index="0" allow="pedestrian bicycle" speed="5.56" length="5.98" width="2.00" shape="497997.00,5796918.20 497996.68,5796919.45 497996.91,5796920.73 497997.68,5796922.03 497999.00,5796923.36"/>
    </edge>
    <edge id=":12985263172_3" function="internal">
        <lane id=":12985263172_3_0" index="0" allow="pedestrian bicycle" speed="5.56" length="9.60" width="2.00" shape="497997.00,5796918.20 497995.75,5796920.76 497994.90,5796922.52 497994.17,5796924.33 497993.28,5796927.03"/>
    </edge>
    <edge id=":12985263172_4" function="internal">
        <lane id=":12985263172_4_0" index="0" allow="pedestrian bicycle" speed="5.56" length="9.32" width="2.00" shape="497991.46,5796926.19 497995.07,5796917.59"/>
    </edge>
    <edge id=":12985263172_5" function="internal">
        <lane id=":12985263172_5_0" index="0" allow="pedestrian bicycle" speed="5.56" length="9.96" width="2.00" shape="497991.46,5796926.19 497993.00,5796923.47 497994.77,5796922.09 497996.77,5796922.05 497999.00,5796923.36"/>
    </edge>
    <edge id=":12985263181_0" function="internal">
        <lane id=":12985263181_0_0" index="0" disallow="tram rail_urban rail rail_electric rail_fast ship container cable_car subway aircraft wheelchair scooter drone" speed="2.78" length="4.26" shape="497920.64,5797111.31 497919.39,5797111.17 497918.53,5797111.04 497917.69,5797110.84 497916.47,5797110.52"/>
    </edge>
    <edge id=":12985263181_1" function="internal">
        <lane id=":12985263181_1_0" index="0" disallow="tram rail_urban rail rail_electric rail_fast ship container cable_car subway aircraft wheelchair scooter drone" speed="2.78" length="3.74" shape="497917.27,5797107.43 497918.35,5797107.71 497919.09,5797107.88 497919.84,5797108.00 497920.94,5797108.12"/>
    </edge>
    <edge id=":12985263192_0" function="internal">
        <lane id=":12985263192_0_0" index="0" allow="pedestrian bicycle" speed="5.56" length="10.04" width="2.00" shape="497976.48,5796973.47 497974.40,5796972.55 497973.41,5796970.88 497973.52,5796968.46 497974.72,5796965.28"/>
    </edge>
    <edge id=":12985263192_1" function="internal">
        <lane id=":12985263192_1_0" index="0" allow="pedestrian bicycle" speed="4.31" length="4.51" width="2.00" shape="497976.26,5796966.69 497975.73,5796968.10 497975.70,5796969.17 497976.16,5796969.92 497977.12,5796970.33"/>
    </edge>
    <edge id=":12985271337_0" function="internal">
        <lane id=":12985271337_0_0" index="0" allow="pedestrian bicycle" speed="5.19" length="5.12" width="2.00" shape="498004.26,5796911.76 498002.92,5796911.27 498001.74,5796911.30 498000.71,5796911.83 497999.85,5796912.88"/>
    </edge>
    <edge id=":12985271337_1" function="internal">
        <lane id=":12985271337_1_0" index="0" allow="pedestrian bicycle" speed="5.56" length="9.25" width="2.00" shape="498004.26,5796911.76 498002.72,5796910.47 498002.07,5796908.68 498002.31,5796906.38 498003.45,5796903.57"/>
    </edge>
    <edge id=":12985271337_2" function="internal">
        <lane id=":12985271337_2_0" index="0" allow="pedestrian bicycle" speed="4.74" length="4.69" width="2.00" shape="498005.04,5796904.84 498004.52,5796906.20 498004.46,5796907.33 498004.87,5796908.23 498005.74,5796908.92"/>
    </edge>
    <edge id=":12985271337_3" function="internal">
        <lane id=":12985271337_3_0" index="0" allow="pedestrian bicycle" speed="5.56" length="9.58" width="2.00" shape="498005.04,5796904.84 498003.65,5796907.32 498002.55,5796908.92 498001.39,5796910.49 497999.85,5796912.88"/>
    </edge>
    <edge id=":12985271337_4" function="internal">
        <lane id=":12985271337_4_0" index="0" allow="pedestrian bicycle" speed="5.56" length="9.83" width="2.00" shape="497998.14,5796911.85 498003.45,5796903.57"/>
    </edge>
    <edge id=":12985271337_5" function="internal">
        <lane id=":12985271337_5_0" index="0" allow="pedestrian bicycle" speed="5.56" length="9.15" width="2.00" shape="497998.14,5796911.85 497999.80,5796909.70 498001.62,5796908.49 498003.60,5796908.24 498005.74,5796908.92"/>
    </edge>
    <edge id=":13089403892_0" function="internal">
        <lane id=":13089403892_0_0" index="0" disallow="tram rail_urban rail rail_electric rail_fast ship container cable_car subway aircraft wheelchair scooter drone" speed="13.89" length="4.89" shape="497782.70,5796556.70 497778.49,5796554.35"/>
        <lane id=":13089403892_0_1" index="1" disallow="tram rail_urban rail rail_electric rail_fast ship container cable_car subway aircraft wheelchair scooter drone" speed="13.89" length="4.89" shape="497784.29,5796553.93 497780.02,5796551.54"/>