<?xml version="1.0" encoding="UTF-8"?>
<routes>
    <vType id="car" vClass="passenger" maxSpeed="14.0" accel="2.6" decel="4.5" length="5.0"/>

    <flow id="flow_N_R_0" type="car" begin="0" end="900" number="1" from="379408514#2" to="143831377#0" departLane="best" departPos="base" departSpeed="max"/>
    <flow id="flow_N_S_0" type="car" begin="0" end="900" number="28" from="379408514#2" to="179245142#0" departLane="best" departPos="base" departSpeed="max"/>
    <flow id="flow_S_S_0" type="car" begin="0" end="900" number="61" from="179245145#4" to="178135941#0" departLane="best" departPos="base" departSpeed="max"/>
    <flow id="flow_S_L_0" type="car" begin="0" end="900" number="11" from="179245145#4" to="143831377#0" departLane="best" departPos="base" departSpeed="max"/>
    <flow id="flow_SW_R_0" type="car" begin="0" end="900" number="7" from="-143831377#0" to="179245142#0" departLane="best" departPos="base" departSpeed="max"/>
    <flow id="flow_SW_L_0" type="car" begin="0" end="900" number="4" from="-143831377#0" to="178135941#0" departLane="best" departPos="base" departSpeed="max"/>
    <flow id="flow_NE_L_0" type="car" begin="0" end="900" number="2" from="-178135939#0" to="179245142#0" departLane="best" departPos="base" departSpeed="max"/>
    <flow id="flow_N_R_900" type="car" begin="900" end="1800" number="1" from="379408514#2" to="143831377#0" departLane="best" departPos="base" departSpeed="max"/>
    <flow id="flow_N_S_900" type="car" begin="900" end="1800" number="26" from="379408514#2" to="179245142#0" departLane="best" departPos="base" departSpeed="max"/>
    <flow id="flow_S_S_900" type="car" begin="900" end="1800" number="51" from="179245145#4" to="178135941#0" departLane="best" departPos="base" departSpeed="max"/>
    <flow id="flow_S_L_900" type="car" begin="900" end="1800" number="11" from="179245145#4" to="143831377#0" departLane="best" departPos="base" departSpeed="max"/>
    <flow id="flow_SW_R_900" type="car" begin="900" end="1800" number="7" from="-143831377#0" to="179245142#0" departLane="best" departPos="base" departSpeed="max"/>
    <flow id="flow_SW_L_900" type="car" begin="900" end="1800" number="4" from="-143831377#0" to="178135941#0" departLane="best" departPos="base" departSpeed="max"/>
    <flow id="flow_NE_L_900" type="car" begin="900" end="1800" number="2" from="-178135939#0" to="179245142#0" departLane="best" departPos="base" departSpeed="max"/>
    <flow id="flow_N_R_1800" type="car" begin="1800" end="2700" number="1" from="379408514#2" to="143831377#0" departLane="best" departPos="base" departSpeed="max"/>
    <flow id="flow_N_S_1800" type="car" begin="1800" end="2700" number="25" from="379408514#2" to="179245142#0" departLane="best" departPos="base" departSpeed="max"/>
    <flow id="flow_S_S_1800" type="car" begin="1800" end="2700" number="42" from="179245145#4" to="178135941#0" departLane="best" departPos="base" departSpeed="max"/>
    <flow id="flow_S_L_1800" type="car" begin="1800" end="2700" number="11" from="179245145#4" to="143831377#0" departLane="best" departPos="base" departSpeed="max"/>
    <flow id="flow_SW_R_1800" type="car" begin="1800" end="2700" number="7" from="-143831377#0" to="179245142#0" departLane="best" departPos="base" departSpeed="max"/>
    <flow id="flow_SW_L_1800" type="car" begin="1800" end="2700" number="4" from="-143831377#0" to="178135941#0" departLane="best" departPos="base" departSpeed="max"/>
    <flow id="flow_NE_L_1800" type="car" begin="1800" end="2700" number="2" from="-178135939#0" to="179245142#0" departLane="best" departPos="base" departSpeed="max"/>
    <flow id="flow_N_R_2700" type="car" begin="2700" end="3600" number="1" from="379408514#2" to="143831377#0" departLane="best" departPos="base" departSpeed="max"/>
    <flow id="flow_N_S_2700" type="car" begin="2700" end="3600" number="23" from="379408514#2" to="179245142#0" departLane="best" departPos="base" departSpeed="max"/>
    <flow id="flow_S_S_2700" type="car" begin="2700" end="3600" number="35" from="179245145#4" to="178135941#0" departLane="best" departPos="base" departSpeed="max"/>
    <flow id="flow_S_L_2700" type="car" begin="2700" end="3600" number="11" from="179245145#4" to="143831377#0" departLane="best" departPos="base" departSpeed="max"/>
    <flow id="flow_SW_R_2700" type="car" begin="2700" end="3600" number="7" from="-143831377#0" to="179245142#0" departLane="best" departPos="base" departSpeed="max"/>
    <flow id="flow_SW_L_2700" type="car" begin="2700" end="3600" number="4" from="-143831377#0" to="178135941#0" departLane="best" departPos="base" departSpeed="max"/>
    <flow id="flow_NE_L_2700" type="car" begin="2700" end="3600" number="2" from="-178135939#0" to="179245142#0" departLane="best" departPos="base" departSpeed="max"/>
    <flow id="flow_N_R_3600" type="car" begin="3600" end="4500" number="1" from="379408514#2" to="143831377#0" departLane="best" departPos="base" departSpeed="max"/>
    <flow id="flow_N_S_3600" type="car" begin="3600" end="4500" number="21" from="379408514#2" to="179245142#0" departLane="best" departPos="base" departSpeed="max"/>
    <flow id="flow_S_S_3600" type="car" begin="3600" end="4500" number="32" from="179245145#4" to="178135941#0" departLane="best" departPos="base" departSpeed="max"/>
    <flow id="flow_S_L_3600" type="car" begin="3600" end="4500" number="11" from="179245145#4" to="143831377#0" departLane="best" departPos="base" departSpeed="max"/>
    <flow id="flow_SW_R_3600" type="car" begin="3600" end="4500" number="7" from="-143831377#0" to="179245142#0" departLane="best" departPos="base" departSpeed="max"/>
    <flow id="flow_SW_L_3600" type="car" begin="3600" end="4500" number="4" from="-143831377#0" to="178135941#0" departLane="best" departPos="base" departSpeed="max"/>
    <flow id="flow_NE_L_3600" type="car" begin="3600" end="4500" number="2" from="-178135939#0" to="179245142#0" departLane="best" departPos="base" departSpeed="max"/>
    <flow id="flow_N_R_4500" type="car" begin="4500" end="5400" number="1" from="379408514#2" to="143831377#0" departLane="best" departPos="base" departSpeed="max"/>
    <flow id="flow_N_S_4500" type="car" begin="4500" end="5400" number="18" from="379408514#2" to="179245142#0" departLane="best" departPos="base" departSpeed="max"/>
    <flow id="flow_S_S_4500" type="car" begin="4500" end="5400" number="29" from="179245145#4" to="178135941#0" departLane="best" departPos="base" departSpeed="max"/>
    <flow id="flow_S_L_4500" type="car" begin="4500" end="5400" number="11" from="179245145#4" to="143831377#0" departLane="best" departPos="base" departSpeed="max"/>
    <flow id="flow_SW_R_4500" type="car" begin="4500" end="5400" number="7" from="-143831377#0" to="179245142#0" departLane="best" departPos="base" departSpeed="max"/>
    <flow id="flow_SW_L_4500" type="car" begin="4500" end="5400" number="4" from="-143831377#0" to="178135941#0" departLane="best" departPos="base" departSpeed="max"/>
    <flow id="flow_NE_L_4500" type="car" begin="4500" end="5400" number="2" from="-178135939#0" to="179245142#0" departLane="best" departPos="base" departSpeed="max"/>
    <flow id="flow_N_R_5400" type="car" begin="5400" end="6300" number="1" from="379408514#2" to="143831377#0" departLane="best" departPos="base" departSpeed="max"/>
    <flow id="flow_N_S_5400" type="car" begin="5400" end="6300" number="16" from="379408514#2" to="179245142#0" departLane="best" departPos="base" departSpeed="max"/>
    <flow id="flow_S_S_5400" type="car" begin="5400" end="6300" number="26" from="179245145#4" to="178135941#0" departLane="best" departPos="base" departSpeed="max"/>
    <flow id="flow_S_L_5400" type="car" begin="5400" end="6300" number="11" from="179245145#4" to="143831377#0" departLane="best" departPos="base" departSpeed="max"/>
    <flow id="flow_SW_R_5400" type="car" begin="5400" end="6300" number="7" from="-143831377#0" to="179245142#0" departLane="best" departPos="base" departSpeed="max"/>
    <flow id="flow_SW_L_5400" type="car" begin="5400" end="6300" number="4" from="-143831377#0" to="178135941#0" departLane="best" departPos="base" departSpeed="max"/>
    <flow id="flow_NE_L_5400" type="car" begin="5400" end="6300" number="2" from="-178135939#0" to="179245142#0" departLane="best" departPos="base" departSpeed="max"/>
    <flow id="flow_N_R_6300" type="car" begin="6300" end="7200" number="1" from="379408514#2" to="143831377#0" departLane="best" departPos="base" departSpeed="max"/>
    <flow id="flow_N_S_6300" type="car" begin="6300" end="7200" number="15" from="379408514#2" to="179245142#0" departLane="best" departPos="base" departSpeed="max"/>
    <flow id="flow_S_S_6300" type="car" begin="6300" end="7200" number="25" from="179245145#4" to="178135941#0" departLane="best" departPos="base" departSpeed="max"/>
    <flow id="flow_S_L_6300" type="car" begin="6300" end="7200" number="11" from="179245145#4" to="143831377#0" departLane="best" departPos="base" departSpeed="max"/>
    <flow id="flow_SW_R_6300" type="car" begin="6300" end="7200" number="7" from="-143831377#0" to="179245142#0" departLane="best" departPos="base" departSpeed="max"/>
    <flow id="flow_SW_L_6300" type="car" begin="6300" end="7200" number="4" from="-143831377#0" to="178135941#0" departLane="best" departPos="base" departSpeed="max"/>
    <flow id="flow_NE_L_6300" type="car" begin="6300" end="7200" number="2" from="-178135939#0" to="179245142#0" departLane="best" departPos="base" departSpeed="max"/>
    <flow id="flow_N_R_7200" type="car" begin="7200" end="8100" number="1" from="379408514#2" to="143831377#0" departLane="best" departPos="base" departSpeed="max"/>
    <flow id="flow_N_S_7200" type="car" begin="7200" end="8100" number="15" from="379408514#2" to="179245142#0" departLane="best" departPos="base" departSpeed="max"/>
    <flow id="flow_S_S_7200" type="car" begin="7200" end="8100" number="25" from="179245145#4" to="178135941#0" departLane="best" departPos="base" departSpeed="max"/>
    <flow id="flow_S_L_7200" type="car" begin="7200" end="8100" number="11" from="179245145#4" to="143831377#0" departLane="best" departPos="base" departSpeed="max"/>
    <flow id="flow_SW_R_7200" type="car" begin="7200" end="8100" number="7" from="-143831377#0" to="179245142#0" departLane="best" departPos="base" departSpeed="max"/>
    <flow id="flow_SW_L_7200" type="car" begin="7200" end="8100" number="4" from="-143831377#0" to="178135941#0" departLane="best" departPos="base" departSpeed="max"/>
    <flow id="flow_NE_L_7200" type="car" begin="7200" end="8100" number="2" from="-178135939#0" to="179245142#0" departLane="best" departPos="base" departSpeed="max"/>
    <flow id="flow_N_R_8100" type="car" begin="8100" end="9000" number="1" from="379408514#2" to="143831377#0" departLane="best" departPos="base" departSpeed="max"/>
    <flow id="flow_N_S_8100" type="car" begin="8100" end="9000" number="17" from="379408514#2" to="179245142#0" departLane="best" departPos="base" departSpeed="max"/>
    <flow id="flow_S_S_8100" type="car" begin="8100" end="9000" number="25" from="179245145#4" to="178135941#0" departLane="best" departPos="base" departSpeed="max"/>
    <flow id="flow_S_L_8100" type="car" begin="8100" end="9000" number="11" from="179245145#4" to="143831377#0" departLane="best" departPos="base" departSpeed="max"/>
    <flow id="flow_SW_R_8100" type="car" begin="8100" end="9000" number="7" from="-143831377#0" to="179245142#0" departLane="best" departPos="base" departSpeed="max"/>
    <flow id="flow_SW_L_8100" type="car" begin="8100" end="9000" number="4" from="-143831377#0" to="178135941#0" departLane="best" departPos="base" departSpeed="max"/>
    <flow id="flow_NE_L_8100" type="car" begin="8100" end="9000" number="2" from="-178135939#0" to="179245142#0" departLane="best" departPos="base" departSpeed="max"/>
    <flow id="flow_N_R_9000" type="car" begin="9000" end="9900" number="1" from="379408514#2" to="143831377#0" departLane="best" departPos="base" departSpeed="max"/>
    <flow id="flow_N_S_9000" type="car" begin="9000" end="9900" number="21" from="379408514#2" to="179245142#0" departLane="best" departPos="base" departSpeed="max"/>
    <flow id="flow_S_S_9000" type="car" begin="9000" end="9900" number="25" from="179245145#4" to="178135941#0" departLane="best" departPos="base" departSpeed="max"/>
    <flow id="flow_S_L_9000" type="car" begin="9000" end="9900" number="11" from="179245145#4" to="143831377#0" departLane="best" departPos="base" departSpeed="max"/>
    <flow id="flow_SW_R_9000" type="car" begin="9000" end="9900" number="7" from="-143831377#0" to="179245142#0" departLane="best" departPos="base" departSpeed="max"/>
    <flow id="flow_SW_L_9000" type="car" begin="9000" end="9900" number="4" from="-143831377#0" to="178135941#0" departLane="best" departPos="base" departSpeed="max"/>
    <flow id="flow_NE_L_9000" type="car" begin="9000" end="9900" number="2" from="-178135939#0" to="179245142#0" departLane="best" departPos="base" departSpeed="max"/>
    <flow id="flow_N_R_9900" type="car" begin="9900" end="10800" number="1" from="379408514#2" to="143831377#0" departLane="best" departPos="base" departSpeed="max"/>
    <flow id="flow_N_S_9900" type="car" begin="9900" end="10800" number="26" from="379408514#2" to="179245142#0" departLane="best" departPos="base" departSpeed="max"/>
    <flow id="flow_S_S_9900" type="car" begin="9900" end="10800" number="25" from="179245145#4" to="178135941#0" departLane="best" departPos="base" departSpeed="max"/>
    <flow id="flow_S_L_9900" type="car" begin="9900" end="10800" number="11" from="179245145#4" to="143831377#0" departLane="best" departPos="base" departSpeed="max"/>
    <flow id="flow_SW_R_9900" type="car" begin="9900" end="10800" number="7" from="-143831377#0" to="179245142#0" departLane="best" departPos="base" departSpeed="max"/>
    <flow id="flow_SW_L_9900" type="car" begin="9900" end="10800" number="4" from="-143831377#0" to="178135941#0" departLane="best" departPos="base" departSpeed="max"/>
    <flow id="flow_NE_L_9900" type="car" begin="9900" end="10800" number="2" from="-178135939#0" to="179245142#0" departLane="best" departPos="base" departSpeed="max"/>
    <flow id="flow_N_R_10800" type="car" begin="10800" end="11700" number="1" from="379408514#2" to="143831377#0" departLane="best" departPos="base" departSpeed="max"/>
    <flow id="flow_N_S_10800" type="car" begin="10800" end="11700" number="33" from="379408514#2" to="179245142#0" departLane="best" departPos="base" departSpeed="max"/>
    <flow id="flow_S_S_10800" type="car" begin="10800" end="11700" number="25" from="179245145#4" to="178135941#0" departLane="best" departPos="base" departSpeed="max"/>
    <flow id="flow_S_L_10800" type="car" begin="10800" end="11700" number="11" from="179245145#4" to="143831377#0" departLane="best" departPos="base" departSpeed="max"/>
    <flow id="flow_SW_R_10800" type="car" begin="10800" end="11700" number="7" from="-143831377#0" to="179245142#0" departLane="best" departPos="base" departSpeed="max"/>
    <flow id="flow_SW_L_10800" type="car" begin="10800" end="11700" number="4" from="-143831377#0" to="178135941#0" departLane="best" departPos="base" departSpeed="max"/>
    <flow id="flow_NE_L_10800" type="car" begin="10800" end="11700" number="2" from="-178135939#0" to="179245142#0" departLane="best" departPos="base" departSpeed="max"/>
    <flow id="flow_N_R_11700" type="car" begin="11700" end="12600" number="1" from="379408514#2" to="143831377#0" departLane="best" departPos="base" departSpeed="max"/>
    <flow id="flow_N_S_11700" type="car" begin="11700" end="12600" number="43" from="379408514#2" to="179245142#0" departLane="best" departPos="base" departSpeed="max"/>
    <flow id="flow_S_S_11700" type="car" begin="11700" end="12600" number="26" from="179245145#4" to="178135941#0" departLane="best" departPos="base" departSpeed="max"/>
    <flow id="flow_S_L_11700" type="car" begin="11700" end="12600" number="11" from="179245145#4" to="143831377#0" departLane="best" departPos="base" departSpeed="max"/>
    <flow id="flow_SW_R_11700" type="car" begin="11700" end="12600" number="7" from="-143831377#0" to="179245142#0" departLane="best" departPos="base" departSpeed="max"/>
    <flow id="flow_SW_L_11700" type="car" begin="11700" end="12600" number="4" from="-143831377#0" to="178135941#0" departLane="best" departPos="base" departSpeed="max"/>
    <flow id="flow_NE_L_11700" type="car" begin="11700" end="12600" number="2" from="-178135939#0" to="179245142#0" departLane="best" departPos="base" departSpeed="max"/>
    <flow id="flow_N_R_12600" type="car" begin="12600" end="13500" number="1" from="379408514#2" to="143831377#0" departLane="best" departPos="base" departSpeed="max"/>
    <flow id="flow_N_S_12600" type="car" begin="12600" end="13500" number="58" from="379408514#2" to="179245142#0" departLane="best" departPos="base" departSpeed="max"/>
    <flow id="flow_S_S_12600" type="car" begin="12600" end="13500" number="28" from="179245145#4" to="178135941#0" departLane="best" departPos="base" departSpeed="max"/>
    <flow id="flow_S_L_12600" type="car" begin="12600" end="13500" number="11" from="179245145#4" to="143831377#0" departLane="best" departPos="base" departSpeed="max"/>
    <flow id="flow_SW_R_12600" type="car" begin="12600" end="13500" number="7" from="-143831377#0" to="179245142#0" departLane="best" departPos="base" departSpeed="max"/>
    <flow id="flow_SW_L_12600" type="car" begin="12600" end="13500" number="4" from="-143831377#0" to="178135941#0" departLane="best" departPos="base" departSpeed="max"/>
    <flow id="flow_NE_L_12600" type="car" begin="12600" end="13500" number="2" from="-178135939#0" to="179245142#0" departLane="best" departPos="base" departSpeed="max"/>
    <flow id="flow_N_R_13500" type="car" begin="13500" end="14400" number="1" from="379408514#2" to="143831377#0" departLane="best" departPos="base" departSpeed="max"/>
    <flow id="flow_N_S_13500" type="car" begin="13500" end="14400" number="77" from="379408514#2" to="179245142#0" departLane="best" departPos="base" departSpeed="max"/>
    <flow id="flow_S_S_13500" type="car" begin="13500" end="14400" number="32" from="179245145#4" to="178135941#0" departLane="best" departPos="base" departSpeed="max"/>
    <flow id="flow_S_L_13500" type="car" begin="13500" end="14400" number="11" from="179245145#4" to="143831377#0" departLane="best" departPos="base" departSpeed="max"/>
    <flow id="flow_SW_R_13500" type="car" begin="13500" end="14400" number="7" from="-143831377#0" to="179245142#0" departLane="best" departPos="base" departSpeed="max"/>
    <flow id="flow_SW_L_13500" type="car" begin="13500" end="14400" number="4" from="-143831377#0" to="178135941#0" departLane="best" departPos="base" departSpeed="max"/>
    <flow id="flow_NE_L_13500" type="car" begin="13500" end="14400" number="2" from="-178135939#0" to="179245142#0" departLane="best" departPos="base" departSpeed="max"/>
    <flow id="flow_N_R_14400" type="car" begin="14400" end="15300" number="1" from="379408514#2" to="143831377#0" departLane="best" departPos="base" departSpeed="max"/>
    <flow id="flow_N_S_14400" type="car" begin="14400" end="15300" number="106" from="379408514#2" to="179245142#0" departLane="best" departPos="base" departSpeed="max"/>
    <flow id="flow_S_S_14400" type="car" begin="14400" end="15300" number="36" from="179245145#4" to="178135941#0" departLane="best" departPos="base" departSpeed="max"/>
    <flow id="flow_S_L_14400" type="car" begin="14400" end="15300" number="11" from="179245145#4" to="143831377#0" departLane="best" departPos="base" departSpeed="max"/>
    <flow id="flow_SW_R_14400" type="car" begin="14400" end="15300" number="7" from="-143831377#0" to="179245142#0" departLane="best" departPos="base" departSpeed="max"/>
    <flow id="flow_SW_L_14400" type="car" begin="14400" end="15300" number="4" from="-143831377#0" to="178135941#0" departLane="best" departPos="base" departSpeed="max"/>
    <flow id="flow_NE_L_14400" type="car" begin="14400" end="15300" number="2" from="-178135939#0" to="179245142#0" departLane="best" departPos="base" departSpeed="max"/>
    <flow id="flow_N_R_15300" type="car" begin="15300" end="16200" number="1" from="379408514#2" to="143831377#0" departLane="best" departPos="base" departSpeed="max"/>
    <flow id="flow_N_S_15300" type="car" begin="15300" end="16200" number="167" from="379408514#2" to="179245142#0" departLane="best" departPos="base" departSpeed="max"/>
    <flow id="flow_N_U_15300" type="car" begin="15300" end="16200" number="1" from="379408514#2" to="178135941#0" departLane="best" departPos="base" departSpeed="max"/>
    <flow id="flow_S_S_15300" type="car" begin="15300" end="16200" number="44" from="179245145#4" to="178135941#0" departLane="best" departPos="base" departSpeed="max"/>
    <flow id="flow_S_L_15300" type="car" begin="15300" end="16200" number="13" from="179245145#4" to="143831377#0" departLane="best" departPos="base" departSpeed="max"/>
    <flow id="flow_SW_R_15300" type="car" begin="15300" end="16200" number="11" from="-143831377#0" to="179245142#0" departLane="best" departPos="base" departSpeed="max"/>
    <flow id="flow_SW_L_15300" type="car" begin="15300" end="16200" number="5" from="-143831377#0" to="178135941#0" departLane="best" departPos="base" departSpeed="max"/>
    <flow id="flow_NE_L_15300" type="car" begin="15300" end="16200" number="4" from="-178135939#0" to="179245142#0" departLane="best" departPos="base" departSpeed="max"/>
    <flow id="flow_N_R_16200" type="car" begin="16200" end="17100" number="1" from="379408514#2" to="143831377#0" departLane="best" departPos="base" departSpeed="max"/>
    <flow id="flow_N_S_16200" type="car" begin="16200" end="17100" number="248" from="379408514#2" to="179245142#0" departLane="best" departPos="base" departSpeed="max"/>
    <flow id="flow_N_U_16200" type="car" begin="16200" end="17100" number="1" from="379408514#2" to="178135941#0" departLane="best" departPos="base" departSpeed="max"/>
    <flow id="flow_S_S_16200" type="car" begin="16200" end="17100" number="58" from="179245145#4" to="178135941#0" departLane="best" departPos="base" departSpeed="max"/>
    <flow id="flow_S_L_16200" type="car" begin="16200" end="17100" number="16" from="179245145#4" to="143831377#0" departLane="best" departPos="base" departSpeed="max"/>
    <flow id="flow_SW_R_16200" type="car" begin="16200" end="17100" number="17" from="-143831377#0" to="179245142#0" departLane="best" departPos="base" departSpeed="max"/>
    <flow id="flow_SW_L_16200" type="car" begin="16200" end="17100" number="6" from="-143831377#0" to="178135941#0" departLane="best" departPos="base" departSpeed="max"/>
    <flow id="flow_NE_L_16200" type="car" begin="16200" end="17100" number="8" from="-178135939#0" to="179245142#0" departLane="best" departPos="base" departSpeed="max"/>
    <flow id="flow_N_R_17100" type="car" begin="17100" end="18000" number="2" from="379408514#2" to="143831377#0" departLane="best" departPos="base" departSpeed="max"/>
    <flow id="flow_N_S_17100" type="car" begin="17100" end="18000" number="332" from="379408514#2" to="179245142#0" departLane="best" departPos="base" departSpeed="max"/>
    <flow id="flow_N_U_17100" type="car" begin="17100" end="18000" number="2" from="379408514#2" to="178135941#0" departLane="best" departPos="base" departSpeed="max"/>
    <flow id="flow_S_S_17100" type="car" begin="17100" end="18000" number="74" from="179245145#4" to="178135941#0" departLane="best" departPos="base" departSpeed="max"/>
    <flow id="flow_S_L_17100" type="car" begin="17100" end="18000" number="20" from="179245145#4" to="143831377#0" departLane="best" departPos="base" departSpeed="max"/>
    <flow id="flow_SW_R_17100" type="car" begin="17100" end="18000" number="24" from="-143831377#0" to="179245142#0" departLane="best" departPos="base" departSpeed="max"/>
    <flow id="flow_SW_L_17100" type="car" begin="17100" end="18000" number="8" from="-143831377#0" to="178135941#0" departLane="best" departPos="base" departSpeed="max"/>
    <flow id="flow_NE_S_17100" type="car" begin="17100" end="18000" number="1" from="-178135939#0" to="143831377#0" departLane="best" departPos="base" departSpeed="max"/>
    <flow id="flow_NE_L_17100" type="car" begin="17100" end="18000" number="12" from="-178135939#0" to="179245142#0" departLane="best" departPos="base" departSpeed="max"/>
    <flow id="flow_N_R_18000" type="car" begin="18000" end="18900" number="2" from="379408514#2" to="143831377#0" departLane="best" departPos="base" departSpeed="max"/>
    <flow id="flow_N_S_18000" type="car" begin="18000" end="18900" number="412" from="379408514#2" to="179245142#0" departLane="best" departPos="base" departSpeed="max"/>
    <flow id="flow_N_U_18000" type="car" begin="18000" end="18900" number="2" from="379408514#2" to="178135941#0" departLane="best" departPos="base" departSpeed="max"/>
    <flow id="flow_S_S_18000" type="car" begin="18000" end="18900" number="98" from="179245145#4" to="178135941#0" departLane="best" departPos="base" departSpeed="max"/>
    <flow id="flow_S_L_18000" type="car" begin="18000" end="18900" number="24" from="179245145#4" to="143831377#0" departLane="best" departPos="base" departSpeed="max"/>
    <flow id="flow_SW_R_18000" type="car" begin="18000" end="18900" number="36" from="-143831377#0" to="179245142#0" departLane="best" departPos="base" departSpeed="max"/>
    <flow id="flow_SW_L_18000" type="car" begin="18000" end="18900" number="10" from="-143831377#0" to="178135941#0" departLane="best" departPos="base" departSpeed="max"/>
    <flow id="flow_NE_S_18000" type="car" begin="18000" end="18900" number="2" from="-178135939#0" to="143831377#0" departLane="best" departPos="base" departSpeed="max"/>
    <flow id="flow_NE_L_18000" type="car" begin="18000" end="18900" number="17" from="-178135939#0" to="179245142#0" departLane="best" departPos="base" departSpeed="max"/>
    <flow id="flow_N_R_18900" type="car" begin="18900" end="19800" number="3" from="379408514#2" to="143831377#0" departLane="best" departPos="base" departSpeed="max"/>
    <flow id="flow_N_S_18900" type="car" begin="18900" end="19800" number="511" from="379408514#2" to="179245142#0" departLane="best" departPos="base" departSpeed="max"/>
    <flow id="flow_N_U_18900" type="car" begin="18900" end="19800" number="3" from="379408514#2" to="178135941#0" departLane="best" departPos="base" departSpeed="max"/>
    <flow id="flow_S_S_18900" type="car" begin="18900" end="19800" number="142" from="179245145#4" to="178135941#0" departLane="best" departPos="base" departSpeed="max"/>
    <flow id="flow_S_L_18900" type="car" begin="18900" end="19800" number="29" from="179245145#4" to="143831377#0" departLane="best" departPos="base" departSpeed="max"/>
    <flow id="flow_SW_R_18900" type="car" begin="18900" end="19800" number="61" from="-143831377#0" to="179245142#0" departLane="best" departPos="base" departSpeed="max"/>
    <flow id="flow_SW_S_18900" type="car" begin="18900" end="19800" number="1" from="-143831377#0" to="178135939#0" departLane="best" departPos="base" departSpeed="max"/>
    <flow id="flow_SW_L_18900" type="car" begin="18900" end="19800" number="12" from="-143831377#0" to="178135941#0" departLane="best" departPos="base" departSpeed="max"/>
    <flow id="flow_NE_R_18900" type="car" begin="18900" end="19800" number="1" from="-178135939#0" to="178135941#0" departLane="best" departPos="base" departSpeed="max"/>
    <flow id="flow_NE_S_18900" type="car" begin="18900" end="19800" number="3" from="-178135939#0" to="143831377#0" departLane="best" departPos="base" departSpeed="max"/>
    <flow id="flow_NE_L_18900" type="car" begin="18900" end="19800" number="27" from="-178135939#0" to="179245142#0" departLane="best" departPos="base" departSpeed="max"/>
    <flow id="flow_N_R_19800" type="car" begin="19800" end="20700" number="4" from="379408514#2" to="143831377#0" departLane="best" departPos="base" departSpeed="max"/>
    <flow id="flow_N_S_19800" type="car" begin="19800" end="20700" number="605" from="379408514#2" to="179245142#0" departLane="best" departPos="base" departSpeed="max"/>
    <flow id="flow_N_L_19800" type="car" begin="19800" end="20700" number="1" from="379408514#2" to="178135939#0" departLane="best" departPos="base" departSpeed="max"/>
    <flow id="flow_N_U_19800" type="car" begin="19800" end="20700" number="3" from="379408514#2" to="178135941#0" departLane="best" departPos="base" departSpeed="max"/>
    <flow id="flow_S_S_19800" type="car" begin="19800" end="20700" number="198" from="179245145#4" to="178135941#0" departLane="best" departPos="base" departSpeed="max"/>
    <flow id="flow_S_L_19800" type="car" begin="19800" end="20700" number="35" from="179245145#4" to="143831377#0" departLane="best" departPos="base" departSpeed="max"/>
    <flow id="flow_S_U_19800" type="car" begin="19800" end="20700" number="1" from="179245145#4" to="179245142#0" departLane="best" departPos="base" departSpeed="max"/>
    <flow id="flow_SW_R_19800" type="car" begin="19800" end="20700" number="93" from="-143831377#0" to="179245142#0" departLane="best" departPos="base" departSpeed="max"/>
    <flow id="flow_SW_S_19800" type="car" begin="19800" end="20700" number="1" from="-143831377#0" to="178135939#0" departLane="best" departPos="base" departSpeed="max"/>
    <flow id="flow_SW_L_19800" type="car" begin="19800" end="20700" number="14" from="-143831377#0" to="178135941#0" departLane="best" departPos="base" departSpeed="max"/>
    <flow id="flow_NE_R_19800" type="car" begin="19800" end="20700" number="1" from="-178135939#0" to="178135941#0" departLane="best" departPos="base" departSpeed="max"/>
    <flow id="flow_NE_S_19800" type="car" begin="19800" end="20700" number="4" from="-178135939#0" to="143831377#0" departLane="best" departPos="base" departSpeed="max"/>
    <flow id="flow_NE_L_19800" type="car" begin="19800" end="20700" number="38" from="-178135939#0" to="179245142#0" departLane="best" departPos="base" departSpeed="max"/>